128
Lattice="19.68 0.0 0.0 9.840000000000002 17.043379946477753 0.0 0.0 0.0 15.0" Properties=species:S:1:pos:R:3:spacegroup_kinds:I:1 spacegroup="P 1" unit_cell=conventional occupancy="_JSON {\"0\": {\"C\": 1.0}, \"1\": {\"C\": 1.0}}" pbc="T T T"
C        1.22998770       0.71013373       7.50000000        0
C        2.46001230       1.42028876       7.50000000        1
C        2.45998770       2.84055622       7.50000000        0
C        3.69001230       3.55071126       7.50000000        1
C        3.68998770       4.97097872       7.50000000        0
C        4.92001230       5.68113375       7.50000000        1
C        4.91998770       7.10140121       7.50000000        0
C        6.15001230       7.81155624       7.50000000        1
C        6.14998770       9.23182370       7.50000000        0
C        7.38001230       9.94197874       7.50000000        1
C        7.37998770      11.36224620       7.50000000        0
C        8.61001230      12.07240123       7.50000000        1
C        8.60998770      13.49266869       7.50000000        0
C        9.84001230      14.20282372       7.50000000        1
C        9.83998770      15.62309118       7.50000000        0
C       11.07001230      16.33324622       7.50000000        1
C        3.68998770       0.71013373       7.50000000        0
C        4.92001230       1.42028876       7.50000000        1
C        4.91998770       2.84055622       7.50000000        0
C        6.15001230       3.55071126       7.50000000        1
C        6.14998770       4.97097872       7.50000000        0
C        7.38001230       5.68113375       7.50000000        1
C        7.37998770       7.10140121       7.50000000        0
C        8.61001230       7.81155624       7.50000000        1
C        8.60998770       9.23182370       7.50000000        0
C        9.84001230       9.94197874       7.50000000        1
C        9.83998770      11.36224620       7.50000000        0
C       11.07001230      12.07240123       7.50000000        1
C       11.06998770      13.49266869       7.50000000        0
C       12.30001230      14.20282372       7.50000000        1
C       12.29998770      15.62309118       7.50000000        0
C       13.53001230      16.33324622       7.50000000        1
C        6.14998770       0.71013373       7.50000000        0
C        7.38001230       1.42028876       7.50000000        1
C        7.37998770       2.84055622       7.50000000        0
C        8.61001230       3.55071126       7.50000000        1
C        8.60998770       4.97097872       7.50000000        0
C        9.84001230       5.68113375       7.50000000        1
C        9.83998770       7.10140121       7.50000000        0
C       11.07001230       7.81155624       7.50000000        1
C       11.06998770       9.23182370       7.50000000        0
C       12.30001230       9.94197874       7.50000000        1
C       12.29998770      11.36224620       7.50000000        0
C       13.53001230      12.07240123       7.50000000        1
C       13.52998770      13.49266869       7.50000000        0
C       14.76001230      14.20282372       7.50000000        1
C       14.75998770      15.62309118       7.50000000        0
C       15.99001230      16.33324622       7.50000000        1
C        8.60998770       0.71013373       7.50000000        0
C        9.84001230       1.42028876       7.50000000        1
C        9.83998770       2.84055622       7.50000000        0
C       11.07001230       3.55071126       7.50000000        1
C       11.06998770       4.97097872       7.50000000        0
C       12.30001230       5.68113375       7.50000000        1
C       12.29998770       7.10140121       7.50000000        0
C       13.53001230       7.81155624       7.50000000        1
C       13.52998770       9.23182370       7.50000000        0
C       14.76001230       9.94197874       7.50000000        1
C       14.75998770      11.36224620       7.50000000        0
C       15.99001230      12.07240123       7.50000000        1
C       15.98998770      13.49266869       7.50000000        0
C       17.22001230      14.20282372       7.50000000        1
C       17.21998770      15.62309118       7.50000000        0
C       18.45001230      16.33324622       7.50000000        1
C       11.06998770       0.71013373       7.50000000        0
C       12.30001230       1.42028876       7.50000000        1
C       12.29998770       2.84055622       7.50000000        0
C       13.53001230       3.55071126       7.50000000        1
C       13.52998770       4.97097872       7.50000000        0
C       14.76001230       5.68113375       7.50000000        1
C       14.75998770       7.10140121       7.50000000        0
C       15.99001230       7.81155624       7.50000000        1
C       15.98998770       9.23182370       7.50000000        0
C       17.22001230       9.94197874       7.50000000        1
C       17.21998770      11.36224620       7.50000000        0
C       18.45001230      12.07240123       7.50000000        1
C       18.44998770      13.49266869       7.50000000        0
C       19.68001230      14.20282372       7.50000000        1
C       19.67998770      15.62309118       7.50000000        0
C       20.91001230      16.33324622       7.50000000        1
C       13.52998770       0.71013373       7.50000000        0
C       14.76001230       1.42028876       7.50000000        1
C       14.75998770       2.84055622       7.50000000        0
C       15.99001230       3.55071126       7.50000000        1
C       15.98998770       4.97097872       7.50000000        0
C       17.22001230       5.68113375       7.50000000        1
C       17.21998770       7.10140121       7.50000000        0
C       18.45001230       7.81155624       7.50000000        1
C       18.44998770       9.23182370       7.50000000        0
C       19.68001230       9.94197874       7.50000000        1
C       19.67998770      11.36224620       7.50000000        0
C       20.91001230      12.07240123       7.50000000        1
C       20.90998770      13.49266869       7.50000000        0
C       22.14001230      14.20282372       7.50000000        1
C       22.13998770      15.62309118       7.50000000        0
C       23.37001230      16.33324622       7.50000000        1
C       15.98998770       0.71013373       7.50000000        0
C       17.22001230       1.42028876       7.50000000        1
C       17.21998770       2.84055622       7.50000000        0
C       18.45001230       3.55071126       7.50000000        1
C       18.44998770       4.97097872       7.50000000        0
C       19.68001230       5.68113375       7.50000000        1
C       19.67998770       7.10140121       7.50000000        0
C       20.91001230       7.81155624       7.50000000        1
C       20.90998770       9.23182370       7.50000000        0
C       22.14001230       9.94197874       7.50000000        1
C       22.13998770      11.36224620       7.50000000        0
C       23.37001230      12.07240123       7.50000000        1
C       23.36998770      13.49266869       7.50000000        0
C       24.60001230      14.20282372       7.50000000        1
C       24.59998770      15.62309118       7.50000000        0
C       25.83001230      16.33324622       7.50000000        1
C       18.44998770       0.71013373       7.50000000        0
C       19.68001230       1.42028876       7.50000000        1
C       19.67998770       2.84055622       7.50000000        0
C       20.91001230       3.55071126       7.50000000        1
C       20.90998770       4.97097872       7.50000000        0
C       22.14001230       5.68113375       7.50000000        1
C       22.13998770       7.10140121       7.50000000        0
C       23.37001230       7.81155624       7.50000000        1
C       23.36998770       9.23182370       7.50000000        0
C       24.60001230       9.94197874       7.50000000        1
C       24.59998770      11.36224620       7.50000000        0
C       25.83001230      12.07240123       7.50000000        1
C       25.82998770      13.49266869       7.50000000        0
C       27.06001230      14.20282372       7.50000000        1
C       27.05998770      15.62309118       7.50000000        0
C       28.29001230      16.33324622       7.50000000        1
